49
	Energy:     101.1728223
O          8.13617       14.49825        0.20209
O         12.82400       15.13584        5.42597
O         15.40516       10.63203        3.50900
O         10.54922       10.01824       -1.52304
N          8.98201       12.63603        1.24058
H          9.74289       12.31829        1.83151
N         10.53427       14.23248        2.83693
N         12.20181       13.06310        4.66525
H         11.75250       12.59565        3.88500
N         13.14511       10.42803        3.89249
H         12.24596       10.28917        3.42858
N         12.66943       10.13426        1.31193
N         10.08444        9.98610        0.73065
H         10.50781        9.94914        1.65998
C          8.87711       13.99744        1.04232
C          9.75213       14.85596        1.90757
C         11.28618       15.06632        3.61419
C         12.16361       14.44225        4.65902
C         13.23589       12.37036        5.41654
H         14.20367       12.73811        5.05698
H         13.14450       12.65732        6.47028
C         13.15591       10.84967        5.27826
H         12.23259       10.47321        5.73055
H         14.00724       10.38277        5.78424
C         14.27038       10.43792        3.09435
C         13.98543       10.21577        1.63981
C         12.38643        9.99522       -0.00929
C         10.93029        9.98958       -0.35972
C          8.66464       10.24752        0.61620
H          8.24995        9.60401       -0.16668
H          8.21202        9.96830        1.57330
C          8.37277       11.71494        0.29469
H          7.29123       11.89198        0.29737
H          8.74499       11.97278       -0.70337
C          9.71767       16.23601        1.71031
H          9.08268       16.67193        0.94379
C         10.51203       17.04572        2.51155
H         10.51067       18.12448        2.38007
C         11.30619       16.45445        3.48513
H         11.93615       17.06324        4.12797
C         15.02068       10.14697        0.71623
H         16.05593       10.22541        1.03458
C         14.69314        9.98870       -0.62917
H         15.47622        9.93611       -1.38184
C         13.35277        9.91848       -1.00459
H         13.06859        9.81849       -2.04807
O         10.52100        9.22446        3.55126
H         11.05793        8.41541        3.63681
H          9.73096        9.00172        4.07483
