49
	Energy:     110.5407772
O          8.28006       14.51340        0.07407
O         12.83480       15.14257        5.41201
O         15.49888       10.37297        3.45557
O         10.62576        9.80096       -1.59738
N          8.99385       12.67220        1.24219
H          9.44875       12.36689        2.10271
N         10.38693       14.31297        2.94699
N         12.15037       13.07994        4.67412
H         11.59174       12.60977        3.95958
N         13.21772       10.42258        3.76958
H         12.34452       10.44881        3.24384
N         12.79046        9.82855        1.21917
N         10.20847        9.98961        0.65898
H         10.68336       10.08247        1.55572
C          8.89988       14.03433        1.01816
C          9.66007       14.92071        1.96866
C         11.18193       15.12040        3.70246
C         12.11139       14.46353        4.68938
C         13.22827       12.36398        5.34566
H         14.17648       12.76818        4.97361
H         13.16468       12.60371        6.41371
C         13.19237       10.84059        5.16018
H         12.27231       10.43163        5.59089
H         14.04589       10.38919        5.67730
C         14.36324       10.25000        3.01785
C         14.09973        9.95786        1.56069
C         12.49440        9.74567       -0.10473
C         11.02622        9.82291       -0.44209
C          8.78109       10.24738        0.59284
H          8.34772        9.60671       -0.18279
H          8.36476        9.94692        1.56018
C          8.42751       11.71334        0.30138
H          7.33896       11.83958        0.32237
H          8.77069       11.99143       -0.70175
C          9.67785       16.29241        1.73590
H          9.09771       16.72656        0.92631
C         10.48504       17.09287        2.53762
H         10.53676       18.16547        2.36805
C         11.25495       16.50033        3.53382
H         11.92289       17.10020        4.14595
C         15.12988        9.95565        0.63240
H         16.16174       10.08145        0.94671
C         14.79870        9.82949       -0.71870
H         15.58073        9.84172       -1.47489
C         13.45883        9.73451       -1.10050
H         13.17618        9.68748       -2.14800
O         11.52614       11.98183        2.18778
H         12.40738       12.39811        2.13548
H         11.19436       12.15686        1.28460
