49
	Energy:     190.4925854
O          8.51510        8.56907        2.47172
O         11.72641        8.84314        4.82028
O         11.71474       13.57931        7.28074
O          8.86569       11.98396        2.07713
N          8.41693        9.35884        0.35453
H          8.75467        9.31943       -0.60310
N         11.12396        8.85152        2.17306
N         13.60372        9.93575        4.03497
H         14.22713       10.06342        3.24519
N         11.65321       11.67874        5.96996
H         11.12269       11.20527        5.24052
N          9.44481       12.53032        4.77132
N          6.76943       11.45825        2.87725
H          6.20791       11.51752        3.71890
C          9.02806        8.64634        1.35671
C         10.42239        8.13124        1.29875
C         12.25276        8.34503        2.70042
C         12.57562        9.04492        3.93694
C         13.87852       10.80808        5.18735
H         14.79133       10.38269        5.60640
H         14.12876       11.78431        4.75978
C         12.89613       11.05789        6.36424
H         12.65050       10.13394        6.89527
H         13.39218       11.71826        7.09253
C         11.16969       12.88287        6.43238
C          9.87353       13.30350        5.79939
C          8.29528       12.89185        4.15643
C          7.99670       12.08098        2.93498
C          6.54327       10.23660        2.09500
H          6.69401        9.40582        2.78740
H          5.45641       10.22418        1.96370
C          7.15027       10.05892        0.64210
H          7.19459       11.03331        0.14683
H          6.43462        9.42987        0.10705
C         10.92493        6.92104        0.82935
H         10.38426        6.30955        0.12141
C         12.15275        6.43401        1.36312
H         12.59824        5.50248        1.01890
C         12.79069        7.12002        2.39003
H         13.64968        6.74831        2.93976
C          9.18986       14.42739        6.24242
H          9.58473       15.02701        7.05750
C          7.99456       14.76644        5.60446
H          7.44764       15.65210        5.92159
C          7.53032       13.98602        4.54053
H          6.63076       14.26438        4.00304
O         11.50944       11.56710        2.96625
H         11.10705       10.67324        2.92771
H         10.68992       12.08582        3.05399
