49
	Energy:     217.8195925
O          8.83996        8.31407        2.42290
O         11.20764        9.64734        4.73663
O         11.51086       13.40457        7.41582
O          6.27935       12.82847        2.66460
N          8.77551        9.41163        0.40306
H          9.19609        9.50532       -0.51490
N         11.47432        8.98835        2.11550
N         13.36260        9.32998        5.04724
H         14.21454        8.98251        4.63938
N         11.07807       11.33004        6.56561
H         10.48552       10.79488        5.92603
N          8.91226       12.48463        5.14006
N          7.42321       10.92864        3.08127
H          8.07451       10.44929        3.72260
C          9.36764        8.60408        1.35248
C         10.80348        8.20309        1.25563
C         12.21082        8.36817        3.05834
C         12.24043        9.11755        4.32671
C         13.40909       10.51853        5.91742
H         14.37893       10.43452        6.40494
H         13.40914       11.40910        5.27404
C         12.31006       10.67173        7.01325
H         12.03198        9.69073        7.41269
H         12.72482       11.26999        7.83095
C         10.78445       12.66264        6.75754
C          9.51553       13.19980        6.12320
C          7.80740       12.97977        4.51128
C          7.11972       12.24326        3.34621
C          6.83906       10.08466        2.06007
H          6.81283        9.07106        2.46688
H          5.80136       10.40357        1.98176
C          7.49455       10.10863        0.64808
H          7.63008       11.14554        0.31625
H          6.78723        9.63469       -0.04038
C         11.19201        6.88182        1.02746
H         10.67362        6.23744        0.32282
C         12.22603        6.35367        1.82577
H         12.58929        5.33975        1.66939
C         12.67695        7.07701        2.93291
H         13.30737        6.63274        3.69345
C          9.01528       14.41503        6.54483
H          9.50093       14.95815        7.34808
C          7.86862       14.90584        5.92221
H          7.43573       15.84559        6.24468
C          7.26874       14.19433        4.88379
H          6.38592       14.56832        4.37771
O          9.55206       10.67295        3.81178
H         10.46287       10.82470        4.10139
H          9.51226       11.12328        2.96182
