49
	Energy:     179.4379939
O          8.87070       10.34532       -1.34884
O         11.06609        9.04882        4.22281
O         11.54752       12.14474        8.30427
O          7.42689       10.58480        4.42246
N          9.04612       11.70789        0.50932
H          9.58816       11.78952        1.37331
N         10.90661       10.10087        1.51804
N         13.23534        9.73417        4.06816
H         13.98590        9.90877        3.41690
N         11.17946       10.73772        6.51521
H         10.46518       10.47645        5.83845
N          9.17574       12.33134        5.72974
N          7.03200       12.27907        2.97073
H          6.80115       13.24808        2.82625
C          9.44774       10.67772       -0.32031
C         10.63297        9.92274        0.19990
C         11.88483        9.33044        2.05438
C         12.02203        9.32727        3.54352
C         13.39223       10.33790        5.40155
H         14.40424       10.04933        5.70397
H         13.38902       11.42328        5.24656
C         12.42154        9.97607        6.55170
H         12.18116        8.90806        6.54929
H         12.91584       10.20521        7.50237
C         10.87106       11.80798        7.33949
C          9.61189       12.55026        6.97633
C          7.95083       12.73236        5.31435
C          7.41250       11.80277        4.21551
C          6.96549       11.39243        1.79001
H          7.41006       10.40061        1.98064
H          5.90548       11.23751        1.57582
C          7.64956       12.07736        0.59306
H          7.61898       13.16330        0.71865
H          7.13907       11.81859       -0.33952
C         11.31902        9.02575       -0.60015
H         11.05137        8.89091       -1.64317
C         12.34326        8.27991       -0.01551
H         12.89473        7.55077       -0.59846
C         12.62701        8.42610        1.33700
H         13.35611        7.80950        1.84504
C          8.89690       13.31591        7.86213
H          9.24748       13.43546        8.88156
C          7.69386       13.87197        7.40140
H          7.10955       14.47718        8.09150
C          7.19376       13.57070        6.11143
H          6.21072       13.91509        5.81705
O          9.91332       11.13903        3.73372
H         10.68149       10.76549        4.18708
H          9.44040       10.31075        3.50668
