49
	Energy:     185.8291590
O         10.74191       13.11599        0.34517
O         12.83224       15.32479        5.65987
O         15.67440       10.70367        3.56320
O         10.55395       10.26522        1.77418
N          8.46246       13.08914        0.71205
H          7.73838       13.77478        0.89071
N         10.56652       14.19490        3.13236
N         12.26245       13.19599        4.99226
H         11.84098       12.74982        4.16709
N         13.40020       10.56605        3.91513
H         12.51878       10.61433        3.37324
N         12.94461       10.16672        1.49106
N          9.84837       10.17264       -0.34295
H         10.01197       10.15617       -1.33847
C          9.72748       13.52571        0.96046
C          9.92384       14.58870        2.00573
C         11.21123       15.11899        3.89816
C         12.16990       14.58164        4.96122
C         13.38229       12.46627        5.57825
H         14.31491       12.87313        5.17320
H         13.36430       12.65781        6.65534
C         13.30903       10.94704        5.32190
H         12.34926       10.55433        5.68583
H         14.11781       10.43243        5.83880
C         14.56144       10.51894        3.15953
C         14.25756       10.25926        1.69348
C         12.35381       10.07455        0.29601
C         10.87201       10.16754        0.58365
C          8.52885       10.55558        0.18858
H          7.80727        9.83189       -0.20809
H          8.47229       10.44361        1.28141
C          8.12001       11.99327       -0.20088
H          7.02724       12.01305       -0.24916
H          8.52773       12.23372       -1.18460
C          9.79250       15.91600        1.66021
H          9.32251       16.19103        0.72533
C         10.37296       16.86626        2.50548
H         10.29865       17.92047        2.25131
C         11.12228       16.47172        3.62232
H         11.65394       17.19772        4.23167
C         15.13007       10.17967        0.63802
H         16.19847       10.25042        0.80376
C         14.56013        9.98380       -0.63801
H         15.23507        9.86969       -1.48740
C         13.14674        9.93886       -0.82745
H         12.74805        9.79091       -1.82493
O         12.12767       12.40552        2.59433
H         13.02482       12.43536        2.25467
H         11.65327       12.96038        1.95440
